test/data/pti/three_winding_test_2.raw
0,    100.00, 33, 0, 1, 60.00
A Frankenstein network for testing three-winding transformers
developed by Carleton Coffrin (cjc@lanl.gov) & David Fobes (dfobes@lanl.gov) April 2018
1001,'FAV SPOT 01', 250.0000,1,     101, 201, 301, 1.10000,  -4.0000,1.10000, 0.90000, 1.10000, 0.90000
1002,'FAV SPOT 02',  10.0000,3,     101, 201, 301, 1.00000,   0.0000,1.10000, 0.90000, 1.10000, 0.90000
1003,'FAV SPOT 03',  10.0000,2,     101, 201, 301, 1.00000,   0.0000,1.10000, 0.90000, 1.10000, 0.90000
0 / END OF BUS DATA, BEGIN LOAD DATA
1001,'L0',1, 101, 201,    10.000,     2.500,     0.000,     0.000,     0.000,     0.000, 301,1
0 / END OF LOAD DATA, BEGIN FIXED SHUNT DATA
0 / END OF FIXED SHUNT DATA, BEGIN GENERATOR DATA
1002,'W1',    40.000,     0.050,    40.000,   -35.000,1.00000,     0,    90.000,   0.00000,   0.20000,   0.00000,   0.00000,1.00000,1,   50.0,    75.000,   -75.000,   3,1.0000
1003,'W2',    40.000,     1.000,    40.000,   -35.000,1.00000,     0,    90.000,   0.00000,   0.20000,   0.00000,   0.00000,1.00000,1,   50.0,    75.000,   -75.000,   3,1.0000
0 / END OF GENERATOR DATA, BEGIN BRANCH DATA
0 / END OF BRANCH DATA, BEGIN TRANSFORMER DATA
1001,1002,1003,'1 ',3,3,1,   0.00000,   0.00000,2,'T1 3W',1, 301,1.0000,   0,1.0000,   0,1.0000,   0,1.0000,'            '
  4.50000E-3,2.00000E-1, 100.00,7.00000E-4,3.00000E-1, 100.00,7.00000E-4,2.00000E-1, 100.00,1.00000,  -5.00000
  1.10000, 250.000,   0.000,   200.00,   200.00,   400.00, 0,   1002, 1.25000, 0.75000, 1.10000, 0.90000,  23, 0, 0.00000, 0.00000, 0.0
  1.00000,  10.000,   0.000,   100.00,   100.00,   100.00, 0,      0, 1.10000, 0.90000, 1.10000, 0.90000,  33, 0, 0.00000, 0.00000, 0.0
  1.00000,  10.000,   0.000,   100.00,   100.00,   100.00, 0,      0, 1.10000, 0.90000, 1.10000, 0.90000,  33, 0, 0.00000, 0.00000, 0.0
0 / END OF TRANSFORMER DATA, BEGIN AREA DATA
0 / END OF AREA DATA, BEGIN TWO-TERMINAL DC DATA
0 / END OF TWO-TERMINAL DC DATA, BEGIN VOLTAGE SOURCE CONVERTER DATA
0 / END OF VOLTAGE SOURCE CONVERTER DATA, BEGIN IMPEDANCE CORRECTION DATA
0 / END OF IMPEDANCE CORRECTION DATA, BEGIN MULTI-TERMINAL DC DATA
0 / END OF MULTI-TERMINAL DC DATA, BEGIN MULTI-SECTION LINE DATA
0 / END OF MULTI-SECTION LINE DATA, BEGIN ZONE DATA
0 / END OF ZONE DATA, BEGIN INTER-AREA TRANSFER DATA
0 / END OF INTER-AREA TRANSFER DATA, BEGIN OWNER DATA
0 / END OF OWNER DATA, BEGIN FACTS CONTROL DEVICE DATA
0 / END OF FACTS CONTROL DEVICE DATA, BEGIN SWITCHED SHUNT DATA
0 /END OF SWITCHED SHUNT DATA, BEGIN GNE DEVICE DATA
0 /END OF GNE DEVICE DATA
Q
